output/volt_dump.csv
# output/volt_dump.csv run at 2018-03-01 00:00:00 PST on 578 nodes
node_name,voltA_real,voltA_imag,voltB_real,voltB_imag,voltC_real,voltC_imag
node_3,0.000000,0.000000,0.000000,0.000000,-1192.983587,2079.946397
node_8,2402.372405,-5.309764,-1201.175622,-2071.241593,-1185.608777,2080.681068
node_13,2399.438917,-9.753654,-1202.557233,-2069.777827,-1181.812336,2079.915494
node_14,2401.777100,0.000000,0.000000,0.000000,0.000000,0.000000
substation_meter,2401.777100,0.000000,0.000000,0.000000,0.000000,0.000000
node_15,0.000000,0.000000,0.000000,0.000000,-1181.195272,2079.658566
node_18,2396.609700,-14.630480,-1204.479805,-2068.375702,-1179.138564,2078.035089
node_21,2396.511359,-15.115321,-1204.471936,-2068.409912,-1178.607458,2077.807396
node_23,2396.469358,-15.583992,-1204.371484,-2068.609472,-1178.129567,2077.557561
node_25,2396.326172,-16.107465,-1204.337704,-2068.829261,-1177.820720,2077.286661
node_26,2396.282082,-16.343065,0.000000,0.000000,-1170.232995,2064.211913
node_27,2396.170639,-16.528563,0.000000,0.000000,-1170.270983,2064.145441
node_36,2395.270388,-16.113091,-1205.430378,-2067.167966,0.000000,0.000000
node_40,2395.159737,-16.334298,-1205.410025,-2066.971464,-1178.046379,2078.028078
node_44,2394.339366,-17.231748,-1205.955086,-2066.206464,-1177.209672,2078.001465
node_54,2395.115981,-15.725047,-1204.834265,-2066.896938,-1176.314640,2079.105422
node_57,2393.759037,-18.365798,-1205.523202,-2064.815766,-1173.835740,2078.792572
node_61,2390.957079,-24.204789,-1206.711481,-2060.871972,-1168.372203,2077.904685
node_67,2508.908632,-27.572933,-1215.093989,-2072.801310,-1203.095993,2142.520579
node_72,2508.553280,-28.231922,-1215.357070,-2071.792424,-1202.134546,2142.569814
node_78,2507.811583,-29.107402,-1215.930777,-2070.765779,-1201.401238,2142.599485
node_81,2507.859506,-29.590935,-1215.675378,-2070.725028,-1200.147475,2142.454578
node_89,2506.774494,-29.240309,-1217.279041,-2068.765469,-1201.954439,2143.151081
node_91,2506.701568,-29.322132,-1217.326427,-2068.680689,-1201.848047,2143.151308
node_93,2506.566975,-29.403832,-1217.441044,-2068.597282,-1201.914240,2143.156916
node_97,2508.616400,-28.112222,-1215.229432,-2072.526266,-1202.743263,2142.420045
node_101,2508.383406,-28.551305,-1215.321715,-2072.370926,-1202.494574,2142.318755
node_105,2507.922103,-29.039335,-1215.661920,-2072.218360,-1202.741989,2142.229281
node_108,2507.467907,-29.772187,-1215.816484,-2072.484738,-1202.903929,2141.935192
node_110,2505.173365,-31.502271,0.000000,0.000000,0.000000,0.000000
node_135,2396.608605,-14.629027,-1204.478247,-2068.375508,-1179.139032,2078.033990
node_149,2401.767856,0.001198,-1200.878026,-2079.992984,-1200.887601,2079.983927
node_150,2401.777120,0.000000,-1200.888560,-2080.000000,-1200.888560,2080.000000
node_151,2393.934577,-17.815636,-1206.157373,-2065.606620,-1176.302433,2078.008978
node_152,2399.436059,-9.749829,-1202.553671,-2069.777387,-1181.813918,2079.911821
node_160,2390.954882,-24.201886,-1206.708867,-2060.871628,-1168.373331,2077.901992
node_197,2508.615891,-28.111537,-1215.228935,-2072.526204,-1202.743507,2142.419478
node_250,2396.340098,-16.540684,-1204.202011,-2069.015521,-1177.255952,2077.051038
node_300,2507.468098,-29.772283,-1215.816656,-2072.484868,-1202.903923,2141.935395
node_450,2508.728198,-28.084599,-1215.191809,-2071.994404,-1202.095198,2142.553548
node_610,275.879663,-2.792860,-139.235940,-237.792920,-134.812177,239.758233
node_901,2392.164809,-3.580709,0.000000,0.000000,0.000000,0.000000
node_2501,2396.325820,-16.107416,0.000000,0.000000,-1170.459206,2064.303288
node_6101,2390.957079,-24.204789,-1206.711481,-2060.871972,-1168.372203,2077.904685
node_15001,2401.771322,-0.001134,-1200.883643,-2079.993684,-1200.884770,2079.990548
node_16001,2510.497852,-25.411281,-1214.248562,-2073.749214,-1204.883547,2142.832778
load_1,2402.061784,-2.506027,-1200.922022,-2076.108175,-1193.718259,2080.248850
load_2,0.000000,0.000000,-1200.937057,-2075.998022,0.000000,0.000000
load_4,0.000000,0.000000,0.000000,0.000000,-1192.748512,2079.849564
load_5,0.000000,0.000000,0.000000,0.000000,-1192.410536,2079.710474
load_6,0.000000,0.000000,0.000000,0.000000,-1192.116668,2079.589370
load_7,2402.224128,-4.228801,-1201.083108,-2073.207397,-1188.860760,2080.493669
load_9,2407.203728,-3.600370,0.000000,0.000000,0.000000,0.000000
load_10,2401.651753,-0.097297,0.000000,0.000000,0.000000,0.000000
load_11,2401.526164,-0.194452,0.000000,0.000000,0.000000,0.000000
load_12,0.000000,0.000000,-1201.194827,-2071.099791,0.000000,0.000000
load_16,0.000000,0.000000,0.000000,0.000000,-1180.754515,2079.474863
load_17,0.000000,0.000000,0.000000,0.000000,-1180.989584,2079.573047
load_19,2396.104705,-15.016881,0.000000,0.000000,0.000000,0.000000
load_20,2395.776421,-15.268026,0.000000,0.000000,0.000000,0.000000
load_22,0.000000,0.000000,-1204.559896,-2067.747530,0.000000,0.000000
load_24,0.000000,0.000000,0.000000,0.000000,-1177.482684,2077.287454
load_28,2396.233337,-16.363219,-1204.339861,-2068.935941,-1177.723298,2077.156146
load_29,2396.216622,-16.550727,-1204.299642,-2069.015821,-1177.531951,2077.056095
load_30,2396.340091,-16.540679,-1204.202004,-2069.015516,-1177.255951,2077.051030
load_31,0.000000,0.000000,0.000000,0.000000,-1169.967227,2064.101231
load_32,0.000000,0.000000,0.000000,0.000000,-1169.790049,2064.027426
load_33,2395.665330,-16.914626,0.000000,0.000000,0.000000,0.000000
load_34,0.000000,0.000000,0.000000,0.000000,-1181.371582,2079.731958
load_35,2395.625543,-15.830588,-1205.096413,-2067.455348,-1178.583425,2078.029940
load_37,2394.967186,-16.344831,0.000000,0.000000,0.000000,0.000000
load_38,0.000000,0.000000,-1205.472344,-2066.852619,0.000000,0.000000
load_39,0.000000,0.000000,-1205.499602,-2066.647634,0.000000,0.000000
load_41,0.000000,0.000000,0.000000,0.000000,-1177.855291,2077.948454
load_42,2394.659041,-16.838155,-1205.761643,-2066.488592,-1177.606956,2078.028624
load_43,0.000000,0.000000,-1205.844895,-2065.857511,0.000000,0.000000
load_45,2394.137305,-17.386313,0.000000,0.000000,0.000000,0.000000
load_46,2393.985747,-17.502228,0.000000,0.000000,0.000000,0.000000
load_47,2394.041005,-17.555023,-1206.159231,-2065.773957,-1176.678556,2078.027963
load_48,2393.965306,-17.661536,-1206.200075,-2065.657791,-1176.560828,2078.036568
load_49,2393.966307,-17.649328,-1206.209155,-2065.546853,-1176.465019,2078.073014
load_50,2393.985313,-17.732377,-1206.139175,-2065.573156,-1176.285164,2078.039100
load_51,2393.934529,-17.815615,-1206.157329,-2065.606591,-1176.302433,2078.008930
load_52,2396.952166,-13.214050,-1203.849275,-2068.267464,-1178.814060,2079.406887
load_53,2395.791064,-14.811186,-1204.467005,-2067.448629,-1177.286571,2079.202770
load_55,2395.032583,-15.778029,-1204.905090,-2066.847372,-1176.355592,2079.107764
load_56,2395.004796,-15.738208,-1204.955209,-2066.753883,-1176.377578,2079.143334
load_58,0.000000,0.000000,-1205.565019,-2064.500225,0.000000,0.000000
load_59,0.000000,0.000000,-1205.585913,-2064.342449,0.000000,0.000000
load_60,2390.957021,-24.204760,-1206.711431,-2060.871942,-1168.372197,2077.904622
load_62,2390.650829,-24.364553,-1206.514856,-2060.504459,-1167.679633,2077.199293
load_63,2390.431919,-24.449898,-1206.387627,-2060.218380,-1167.301417,2076.831778
load_64,2390.318531,-24.561871,-1206.072504,-2059.656858,-1166.495010,2076.078048
load_65,2390.097195,-24.797543,-1205.934592,-2059.617532,-1165.599570,2075.062109
load_66,2390.111882,-24.883620,-1205.900743,-2059.711479,-1165.253423,2074.650673
load_68,2508.317277,-28.019704,0.000000,0.000000,0.000000,0.000000
load_69,2507.639547,-28.531564,0.000000,0.000000,0.000000,0.000000
load_70,2507.158962,-28.894533,0.000000,0.000000,0.000000,0.000000
load_71,2506.887761,-29.099218,0.000000,0.000000,0.000000,0.000000
load_73,0.000000,0.000000,0.000000,0.000000,-1201.183745,2142.166569
load_74,0.000000,0.000000,0.000000,0.000000,-1200.376974,2141.824318
load_75,0.000000,0.000000,0.000000,0.000000,-1199.915957,2141.628683
load_76,2508.115427,-28.714855,-1215.756265,-2071.074524,-1201.890238,2142.624432
load_77,2507.856311,-29.005711,-1215.924758,-2070.773138,-1201.511722,2142.625174
load_79,2507.722108,-29.254268,-1215.964151,-2070.835343,-1201.431754,2142.546845
load_80,2507.787943,-29.280352,-1215.888844,-2070.583932,-1200.812013,2142.588511
load_82,2507.794336,-29.754168,-1215.675135,-2070.801552,-1200.085505,2142.393132
load_83,2507.828600,-29.754233,-1215.637782,-2070.800786,-1199.989616,2142.390153
load_84,0.000000,0.000000,0.000000,0.000000,-1198.980547,2141.959303
load_85,0.000000,0.000000,0.000000,0.000000,-1198.433120,2141.726665
load_86,2507.423845,-29.023622,-1216.635901,-2069.698927,-1202.050121,2142.951388
load_87,2506.918719,-29.220064,-1217.121962,-2069.056202,-1202.040919,2143.079588
load_88,2506.746112,-29.350300,0.000000,0.000000,0.000000,0.000000
load_90,0.000000,0.000000,-1217.315361,-2068.481963,0.000000,0.000000
load_92,0.000000,0.000000,0.000000,0.000000,-1201.502425,2143.004738
load_94,2506.457563,-29.583379,-1217.481860,-2068.682328,-1201.951557,2143.092565
load_95,2506.506827,-29.316874,-1217.549298,-2068.393274,-1201.961785,2143.234545
load_96,0.000000,0.000000,-1217.565514,-2068.267316,0.000000,0.000000
load_98,2508.550638,-28.221675,-1215.276324,-2072.394495,-1202.629088,2142.420210
load_99,2508.638298,-28.086340,-1215.295505,-2072.002190,-1202.322594,2142.562667
load_100,2508.728075,-28.084538,-1215.191699,-2071.994320,-1202.095201,2142.553419
load_102,0.000000,0.000000,0.000000,0.000000,-1201.846229,2142.044113
load_103,0.000000,0.000000,0.000000,0.000000,-1201.097017,2141.726557
load_104,0.000000,0.000000,0.000000,0.000000,-1200.290148,2141.384416
load_106,0.000000,0.000000,-1215.735240,-2071.651700,0.000000,0.000000
load_107,0.000000,0.000000,-1215.828844,-2070.927565,0.000000,0.000000
load_109,2505.913552,-30.944138,0.000000,0.000000,0.000000,0.000000
load_111,2504.889759,-31.716272,0.000000,0.000000,0.000000,0.000000
load_112,2504.926574,-31.688270,0.000000,0.000000,0.000000,0.000000
load_113,2504.148981,-32.274060,0.000000,0.000000,0.000000,0.000000
load_114,2503.988592,-32.394980,0.000000,0.000000,0.000000,0.000000
cap_83,2507.828600,-29.754233,-1215.637782,-2070.800786,-1199.989616,2142.390153
cap_88,2506.746112,-29.350300,0.000000,0.000000,0.000000,0.000000
cap_90,0.000000,0.000000,-1217.315361,-2068.481963,0.000000,0.000000
cap_92,0.000000,0.000000,0.000000,0.000000,-1201.502425,2143.004738
node_251,2401.777120,0.000000,-1200.888560,-2080.000000,-1200.888560,2080.000000
node_350,2401.777120,0.000000,-1200.888560,-2080.000000,-1200.888560,2080.000000
node_451,2401.777120,0.000000,-1200.888560,-2080.000000,-1200.888560,2080.000000
node_195,2401.777120,0.000000,-1200.888560,-2080.000000,-1200.888560,2080.000000
node_1A,119.945018,-0.300315,119.949850,-0.295142,0.000000,0.000000
meter_1,119.945018,-0.300315,119.949850,-0.295142,0.000000,0.000000
meter_2,119.945018,-0.300315,119.949850,-0.295142,0.000000,0.000000
meter_3,119.945018,-0.300315,119.949850,-0.295142,0.000000,0.000000
meter_4,119.945018,-0.300315,119.949850,-0.295142,0.000000,0.000000
node_2B,-60.070759,-103.666101,-60.069722,-103.669479,0.000000,0.000000
meter_5,-60.070759,-103.666101,-60.069722,-103.669479,0.000000,0.000000
meter_6,-60.070759,-103.666101,-60.069722,-103.669479,0.000000,0.000000
node_4C,-59.406726,103.942754,-59.413601,103.944349,0.000000,0.000000
meter_7,-59.406726,103.942754,-59.413601,103.944349,0.000000,0.000000
meter_8,-59.406726,103.942754,-59.413601,103.944349,0.000000,0.000000
meter_9,-59.406726,103.942754,-59.413601,103.944349,0.000000,0.000000
meter_10,-59.406726,103.942754,-59.413601,103.944349,0.000000,0.000000
node_5C,-59.492783,103.939072,-59.496223,103.939868,0.000000,0.000000
meter_11,-59.492783,103.939072,-59.496223,103.939868,0.000000,0.000000
meter_12,-59.492783,103.939072,-59.496223,103.939868,0.000000,0.000000
node_6C,-59.375119,103.929715,-59.381992,103.931309,0.000000,0.000000
meter_13,-59.375119,103.929715,-59.381992,103.931309,0.000000,0.000000
meter_14,-59.375119,103.929715,-59.381992,103.931309,0.000000,0.000000
meter_15,-59.375119,103.929715,-59.381992,103.931309,0.000000,0.000000
meter_16,-59.375119,103.929715,-59.381992,103.931309,0.000000,0.000000
node_7A,120.007171,-0.298857,120.009590,-0.296269,0.000000,0.000000
meter_17,120.007171,-0.298857,120.009590,-0.296269,0.000000,0.000000
meter_18,120.007171,-0.298857,120.009590,-0.296269,0.000000,0.000000
node_9A,120.202053,-0.354720,120.206912,-0.349541,0.000000,0.000000
meter_19,120.202053,-0.354720,120.206912,-0.349541,0.000000,0.000000
meter_20,120.202053,-0.354720,120.206912,-0.349541,0.000000,0.000000
meter_21,120.202053,-0.354720,120.206912,-0.349541,0.000000,0.000000
meter_22,120.202053,-0.354720,120.206912,-0.349541,0.000000,0.000000
node_10A,119.978708,-0.092474,119.981121,-0.089883,0.000000,0.000000
meter_23,119.978708,-0.092474,119.981121,-0.089883,0.000000,0.000000
meter_24,119.978708,-0.092474,119.981121,-0.089883,0.000000,0.000000
node_11A,119.918404,-0.184914,119.923228,-0.179737,0.000000,0.000000
meter_25,119.918404,-0.184914,119.923228,-0.179737,0.000000,0.000000
meter_26,119.918404,-0.184914,119.923228,-0.179737,0.000000,0.000000
meter_27,119.918404,-0.184914,119.923228,-0.179737,0.000000,0.000000
meter_28,119.918404,-0.184914,119.923228,-0.179737,0.000000,0.000000
node_12B,-60.083600,-103.421146,-60.082564,-103.424514,0.000000,0.000000
meter_29,-60.083600,-103.421146,-60.082564,-103.424514,0.000000,0.000000
meter_30,-60.083600,-103.421146,-60.082564,-103.424514,0.000000,0.000000
node_16C,-58.806971,103.923161,-58.813816,103.924764,0.000000,0.000000
meter_31,-58.806971,103.923161,-58.813816,103.924764,0.000000,0.000000
meter_32,-58.806971,103.923161,-58.813816,103.924764,0.000000,0.000000
meter_33,-58.806971,103.923161,-58.813816,103.924764,0.000000,0.000000
meter_34,-58.806971,103.923161,-58.813816,103.924764,0.000000,0.000000
node_17C,-58.921833,103.931787,-58.925259,103.932588,0.000000,0.000000
meter_35,-58.921833,103.931787,-58.925259,103.932588,0.000000,0.000000
meter_36,-58.921833,103.931787,-58.925259,103.932588,0.000000,0.000000
node_19A,119.646231,-0.925309,119.651060,-0.920170,0.000000,0.000000
meter_37,119.646231,-0.925309,119.651060,-0.920170,0.000000,0.000000
meter_38,119.646231,-0.925309,119.651060,-0.920170,0.000000,0.000000
meter_39,119.646231,-0.925309,119.651060,-0.920170,0.000000,0.000000
meter_40,119.646231,-0.925309,119.651060,-0.920170,0.000000,0.000000
node_20A,119.629797,-0.937865,119.634625,-0.932727,0.000000,0.000000
meter_41,119.629797,-0.937865,119.634625,-0.932727,0.000000,0.000000
meter_42,119.629797,-0.937865,119.634625,-0.932727,0.000000,0.000000
meter_43,119.629797,-0.937865,119.634625,-0.932727,0.000000,0.000000
meter_44,119.629797,-0.937865,119.634625,-0.932727,0.000000,0.000000
node_22B,-60.300241,-103.162529,-60.298186,-103.169260,0.000000,0.000000
meter_45,-60.300241,-103.162529,-60.298186,-103.169260,0.000000,0.000000
meter_46,-60.300241,-103.162529,-60.298186,-103.169260,0.000000,0.000000
meter_47,-60.300241,-103.162529,-60.298186,-103.169260,0.000000,0.000000
meter_48,-60.300241,-103.162529,-60.298186,-103.169260,0.000000,0.000000
node_24C,-58.643265,103.813692,-58.650095,103.815287,0.000000,0.000000
meter_49,-58.643265,103.813692,-58.650095,103.815287,0.000000,0.000000
meter_50,-58.643265,103.813692,-58.650095,103.815287,0.000000,0.000000
meter_51,-58.643265,103.813692,-58.650095,103.815287,0.000000,0.000000
meter_52,-58.643265,103.813692,-58.650095,103.815287,0.000000,0.000000
node_28A,119.652565,-0.992530,119.657398,-0.987394,0.000000,0.000000
meter_53,119.652565,-0.992530,119.657398,-0.987394,0.000000,0.000000
meter_54,119.652565,-0.992530,119.657398,-0.987394,0.000000,0.000000
meter_55,119.652565,-0.992530,119.657398,-0.987394,0.000000,0.000000
meter_56,119.652565,-0.992530,119.657398,-0.987394,0.000000,0.000000
node_29A,119.651716,-1.001893,119.656549,-0.996758,0.000000,0.000000
meter_57,119.651716,-1.001893,119.656549,-0.996758,0.000000,0.000000
meter_58,119.651716,-1.001893,119.656549,-0.996758,0.000000,0.000000
meter_59,119.651716,-1.001893,119.656549,-0.996758,0.000000,0.000000
meter_60,119.651716,-1.001893,119.656549,-0.996758,0.000000,0.000000
node_30C,-58.631916,103.801869,-58.638745,103.803464,0.000000,0.000000
meter_61,-58.631916,103.801869,-58.638745,103.803464,0.000000,0.000000
meter_62,-58.631916,103.801869,-58.638745,103.803464,0.000000,0.000000
meter_63,-58.631916,103.801869,-58.638745,103.803464,0.000000,0.000000
meter_64,-58.631916,103.801869,-58.638745,103.803464,0.000000,0.000000
node_31C,-58.370439,103.158457,-58.373828,103.159227,0.000000,0.000000
meter_65,-58.370439,103.158457,-58.373828,103.159227,0.000000,0.000000
meter_66,-58.370439,103.158457,-58.373828,103.159227,0.000000,0.000000
node_32C,-58.361580,103.154763,-58.364968,103.155533,0.000000,0.000000
meter_67,-58.361580,103.154763,-58.364968,103.155533,0.000000,0.000000
meter_68,-58.361580,103.154763,-58.364968,103.155533,0.000000,0.000000
node_33A,119.624122,-1.020090,119.628953,-1.014956,0.000000,0.000000
meter_69,119.624122,-1.020090,119.628953,-1.014956,0.000000,0.000000
meter_70,119.624122,-1.020090,119.628953,-1.014956,0.000000,0.000000
meter_71,119.624122,-1.020090,119.628953,-1.014956,0.000000,0.000000
meter_72,119.624122,-1.020090,119.628953,-1.014956,0.000000,0.000000
node_34C,-58.837839,103.936045,-58.844686,103.937648,0.000000,0.000000
meter_73,-58.837839,103.936045,-58.844686,103.937648,0.000000,0.000000
meter_74,-58.837839,103.936045,-58.844686,103.937648,0.000000,0.000000
meter_75,-58.837839,103.936045,-58.844686,103.937648,0.000000,0.000000
meter_76,-58.837839,103.936045,-58.844686,103.937648,0.000000,0.000000
node_35A,119.622212,-0.965962,119.627040,-0.960826,0.000000,0.000000
meter_77,119.622212,-0.965962,119.627040,-0.960826,0.000000,0.000000
meter_78,119.622212,-0.965962,119.627040,-0.960826,0.000000,0.000000
meter_79,119.622212,-0.965962,119.627040,-0.960826,0.000000,0.000000
meter_80,119.622212,-0.965962,119.627040,-0.960826,0.000000,0.000000
node_37A,119.589253,-0.991671,119.594080,-0.986537,0.000000,0.000000
meter_81,119.589253,-0.991671,119.594080,-0.986537,0.000000,0.000000
meter_82,119.589253,-0.991671,119.594080,-0.986537,0.000000,0.000000
meter_83,119.589253,-0.991671,119.594080,-0.986537,0.000000,0.000000
meter_84,119.589253,-0.991671,119.594080,-0.986537,0.000000,0.000000
node_38B,-60.297187,-103.208722,-60.296159,-103.212089,0.000000,0.000000
meter_85,-60.297187,-103.208722,-60.296159,-103.212089,0.000000,0.000000
meter_86,-60.297187,-103.208722,-60.296159,-103.212089,0.000000,0.000000
node_39B,-60.298547,-103.198471,-60.297519,-103.201838,0.000000,0.000000
meter_87,-60.298547,-103.198471,-60.297519,-103.201838,0.000000,0.000000
meter_88,-60.298547,-103.198471,-60.297519,-103.201838,0.000000,0.000000
node_41C,-58.765108,103.850512,-58.768527,103.851310,0.000000,0.000000
meter_89,-58.765108,103.850512,-58.768527,103.851310,0.000000,0.000000
meter_90,-58.765108,103.850512,-58.768527,103.851310,0.000000,0.000000
node_42A,119.628523,-0.928953,119.630936,-0.926384,0.000000,0.000000
meter_91,119.628523,-0.928953,119.630936,-0.926384,0.000000,0.000000
meter_92,119.628523,-0.928953,119.630936,-0.926384,0.000000,0.000000
node_43B,-60.364336,-103.067939,-60.362286,-103.074667,0.000000,0.000000
meter_93,-60.364336,-103.067939,-60.362286,-103.074667,0.000000,0.000000
meter_94,-60.364336,-103.067939,-60.362286,-103.074667,0.000000,0.000000
meter_95,-60.364336,-103.067939,-60.362286,-103.074667,0.000000,0.000000
meter_96,-60.364336,-103.067939,-60.362286,-103.074667,0.000000,0.000000
node_45A,119.602420,-0.956349,119.604833,-0.953781,0.000000,0.000000
meter_97,119.602420,-0.956349,119.604833,-0.953781,0.000000,0.000000
meter_98,119.602420,-0.956349,119.604833,-0.953781,0.000000,0.000000
node_46A,119.594839,-0.962143,119.597252,-0.959575,0.000000,0.000000
meter_99,119.594839,-0.962143,119.597252,-0.959575,0.000000,0.000000
meter_100,119.594839,-0.962143,119.597252,-0.959575,0.000000,0.000000
node_47A,119.570245,-1.008465,119.573864,-1.004615,0.000000,0.000000
meter_101,119.570245,-1.008465,119.573864,-1.004615,0.000000,0.000000
meter_102,119.570245,-1.008465,119.573864,-1.004615,0.000000,0.000000
meter_103,119.570245,-1.008465,119.573864,-1.004615,0.000000,0.000000
node_47B,-60.355764,-103.109280,-60.354225,-103.114327,0.000000,0.000000
meter_104,-60.355764,-103.109280,-60.354225,-103.114327,0.000000,0.000000
meter_105,-60.355764,-103.109280,-60.354225,-103.114327,0.000000,0.000000
meter_106,-60.355764,-103.109280,-60.354225,-103.114327,0.000000,0.000000
node_47C,-58.654694,103.852543,-58.659819,103.853742,0.000000,0.000000
meter_107,-58.654694,103.852543,-58.659819,103.853742,0.000000,0.000000
meter_108,-58.654694,103.852543,-58.659819,103.853742,0.000000,0.000000
meter_109,-58.654694,103.852543,-58.659819,103.853742,0.000000,0.000000
node_48A,119.456644,-1.188455,119.465084,-1.179492,0.000000,0.000000
meter_110,119.456644,-1.188455,119.465084,-1.179492,0.000000,0.000000
meter_111,119.456644,-1.188455,119.465084,-1.179492,0.000000,0.000000
meter_112,119.456644,-1.188455,119.465084,-1.179492,0.000000,0.000000
meter_113,119.456644,-1.188455,119.465084,-1.179492,0.000000,0.000000
meter_114,119.456644,-1.188455,119.465084,-1.179492,0.000000,0.000000
meter_115,119.456644,-1.188455,119.465084,-1.179492,0.000000,0.000000
meter_116,119.456644,-1.188455,119.465084,-1.179492,0.000000,0.000000
node_48B,-60.454668,-102.921183,-60.451093,-102.932947,0.000000,0.000000
meter_117,-60.454668,-102.921183,-60.451093,-102.932947,0.000000,0.000000
meter_118,-60.454668,-102.921183,-60.451093,-102.932947,0.000000,0.000000
meter_119,-60.454668,-102.921183,-60.451093,-102.932947,0.000000,0.000000
meter_120,-60.454668,-102.921183,-60.451093,-102.932947,0.000000,0.000000
meter_121,-60.454668,-102.921183,-60.451093,-102.932947,0.000000,0.000000
meter_122,-60.454668,-102.921183,-60.451093,-102.932947,0.000000,0.000000
meter_123,-60.454668,-102.921183,-60.451093,-102.932947,0.000000,0.000000
node_48C,-58.442321,103.845000,-58.454259,103.847803,0.000000,0.000000
meter_124,-58.442321,103.845000,-58.454259,103.847803,0.000000,0.000000
meter_125,-58.442321,103.845000,-58.454259,103.847803,0.000000,0.000000
meter_126,-58.442321,103.845000,-58.454259,103.847803,0.000000,0.000000
meter_127,-58.442321,103.845000,-58.454259,103.847803,0.000000,0.000000
meter_128,-58.442321,103.845000,-58.454259,103.847803,0.000000,0.000000
meter_129,-58.442321,103.845000,-58.454259,103.847803,0.000000,0.000000
meter_130,-58.442321,103.845000,-58.454259,103.847803,0.000000,0.000000
node_49A,119.566505,-1.013177,119.570124,-1.009328,0.000000,0.000000
meter_131,119.566505,-1.013177,119.570124,-1.009328,0.000000,0.000000
meter_132,119.566505,-1.013177,119.570124,-1.009328,0.000000,0.000000
meter_133,119.566505,-1.013177,119.570124,-1.009328,0.000000,0.000000
node_49B,-60.455118,-102.915627,-60.451543,-102.927390,0.000000,0.000000
meter_134,-60.455118,-102.915627,-60.451543,-102.927390,0.000000,0.000000
meter_135,-60.455118,-102.915627,-60.451543,-102.927390,0.000000,0.000000
meter_136,-60.455118,-102.915627,-60.451543,-102.927390,0.000000,0.000000
meter_137,-60.455118,-102.915627,-60.451543,-102.927390,0.000000,0.000000
meter_138,-60.455118,-102.915627,-60.451543,-102.927390,0.000000,0.000000
meter_139,-60.455118,-102.915627,-60.451543,-102.927390,0.000000,0.000000
meter_140,-60.455118,-102.915627,-60.451543,-102.927390,0.000000,0.000000
node_49C,-58.644020,103.854782,-58.649144,103.855981,0.000000,0.000000
meter_141,-58.644020,103.854782,-58.649144,103.855981,0.000000,0.000000
meter_142,-58.644020,103.854782,-58.649144,103.855981,0.000000,0.000000
meter_143,-58.644020,103.854782,-58.649144,103.855981,0.000000,0.000000
node_50C,-58.583422,103.851136,-58.590251,103.852736,0.000000,0.000000
meter_144,-58.583422,103.851136,-58.590251,103.852736,0.000000,0.000000
meter_145,-58.583422,103.851136,-58.590251,103.852736,0.000000,0.000000
meter_146,-58.583422,103.851136,-58.590251,103.852736,0.000000,0.000000
meter_147,-58.583422,103.851136,-58.590251,103.852736,0.000000,0.000000
node_51A,119.592268,-0.977800,119.594680,-0.975232,0.000000,0.000000
meter_148,119.592268,-0.977800,119.594680,-0.975232,0.000000,0.000000
meter_149,119.592268,-0.977800,119.594680,-0.975232,0.000000,0.000000
node_52A,119.688739,-0.835247,119.693568,-0.830104,0.000000,0.000000
meter_150,119.688739,-0.835247,119.693568,-0.830104,0.000000,0.000000
meter_151,119.688739,-0.835247,119.693568,-0.830104,0.000000,0.000000
meter_152,119.688739,-0.835247,119.693568,-0.830104,0.000000,0.000000
meter_153,119.688739,-0.835247,119.693568,-0.830104,0.000000,0.000000
node_53A,119.630562,-0.915052,119.635390,-0.909914,0.000000,0.000000
meter_154,119.630562,-0.915052,119.635390,-0.909914,0.000000,0.000000
meter_155,119.630562,-0.915052,119.635390,-0.909914,0.000000,0.000000
meter_156,119.630562,-0.915052,119.635390,-0.909914,0.000000,0.000000
meter_157,119.630562,-0.915052,119.635390,-0.909914,0.000000,0.000000
node_55A,119.647235,-0.875984,119.649649,-0.873414,0.000000,0.000000
meter_158,119.647235,-0.875984,119.649649,-0.873414,0.000000,0.000000
meter_159,119.647235,-0.875984,119.649649,-0.873414,0.000000,0.000000
node_56B,-60.271361,-103.203788,-60.270333,-103.207154,0.000000,0.000000
meter_160,-60.271361,-103.203788,-60.270333,-103.207154,0.000000,0.000000
meter_161,-60.271361,-103.203788,-60.270333,-103.207154,0.000000,0.000000
node_58B,-60.301800,-103.091082,-60.300772,-103.094444,0.000000,0.000000
meter_162,-60.301800,-103.091082,-60.300772,-103.094444,0.000000,0.000000
meter_163,-60.301800,-103.091082,-60.300772,-103.094444,0.000000,0.000000
node_59B,-60.302842,-103.083191,-60.301815,-103.086553,0.000000,0.000000
meter_164,-60.302842,-103.083191,-60.301815,-103.086553,0.000000,0.000000
meter_165,-60.302842,-103.083191,-60.301815,-103.086553,0.000000,0.000000
node_60A,119.443184,-1.297046,119.445597,-1.294488,0.000000,0.000000
meter_166,119.443184,-1.297046,119.445597,-1.294488,0.000000,0.000000
meter_167,119.443184,-1.297046,119.445597,-1.294488,0.000000,0.000000
node_62C,-58.153081,103.808561,-58.159887,103.810163,0.000000,0.000000
meter_168,-58.153081,103.808561,-58.159887,103.810163,0.000000,0.000000
meter_169,-58.153081,103.808561,-58.159887,103.810163,0.000000,0.000000
meter_170,-58.153081,103.808561,-58.159887,103.810163,0.000000,0.000000
meter_171,-58.153081,103.808561,-58.159887,103.810163,0.000000,0.000000
node_63A,119.361880,-1.396594,119.366701,-1.391483,0.000000,0.000000
meter_172,119.361880,-1.396594,119.366701,-1.391483,0.000000,0.000000
meter_173,119.361880,-1.396594,119.366701,-1.391483,0.000000,0.000000
meter_174,119.361880,-1.396594,119.366701,-1.391483,0.000000,0.000000
meter_175,119.361880,-1.396594,119.366701,-1.391483,0.000000,0.000000
node_64B,-60.448165,-102.620638,-60.444594,-102.632359,0.000000,0.000000
meter_176,-60.448165,-102.620638,-60.444594,-102.632359,0.000000,0.000000
meter_177,-60.448165,-102.620638,-60.444594,-102.632359,0.000000,0.000000
meter_178,-60.448165,-102.620638,-60.444594,-102.632359,0.000000,0.000000
meter_179,-60.448165,-102.620638,-60.444594,-102.632359,0.000000,0.000000
meter_180,-60.448165,-102.620638,-60.444594,-102.632359,0.000000,0.000000
meter_181,-60.448165,-102.620638,-60.444594,-102.632359,0.000000,0.000000
meter_182,-60.448165,-102.620638,-60.444594,-102.632359,0.000000,0.000000
node_65A,119.372666,-1.370328,119.376283,-1.366494,0.000000,0.000000
meter_183,119.372666,-1.370328,119.376283,-1.366494,0.000000,0.000000
meter_184,119.372666,-1.370328,119.376283,-1.366494,0.000000,0.000000
meter_185,119.372666,-1.370328,119.376283,-1.366494,0.000000,0.000000
node_65B,-60.344488,-102.801314,-60.342951,-102.806343,0.000000,0.000000
meter_186,-60.344488,-102.801314,-60.342951,-102.806343,0.000000,0.000000
meter_187,-60.344488,-102.801314,-60.342951,-102.806343,0.000000,0.000000
meter_188,-60.344488,-102.801314,-60.342951,-102.806343,0.000000,0.000000
node_65C,-57.893781,103.695139,-57.905657,103.697933,0.000000,0.000000
meter_189,-57.893781,103.695139,-57.905657,103.697933,0.000000,0.000000
meter_190,-57.893781,103.695139,-57.905657,103.697933,0.000000,0.000000
meter_191,-57.893781,103.695139,-57.905657,103.697933,0.000000,0.000000
meter_192,-57.893781,103.695139,-57.905657,103.697933,0.000000,0.000000
meter_193,-57.893781,103.695139,-57.905657,103.697933,0.000000,0.000000
meter_194,-57.893781,103.695139,-57.905657,103.697933,0.000000,0.000000
meter_195,-57.893781,103.695139,-57.905657,103.697933,0.000000,0.000000
node_66C,-57.876432,103.674562,-57.888304,103.677354,0.000000,0.000000
meter_196,-57.876432,103.674562,-57.888304,103.677354,0.000000,0.000000
meter_197,-57.876432,103.674562,-57.888304,103.677354,0.000000,0.000000
meter_198,-57.876432,103.674562,-57.888304,103.677354,0.000000,0.000000
meter_199,-57.876432,103.674562,-57.888304,103.677354,0.000000,0.000000
meter_200,-57.876432,103.674562,-57.888304,103.677354,0.000000,0.000000
meter_201,-57.876432,103.674562,-57.888304,103.677354,0.000000,0.000000
meter_202,-57.876432,103.674562,-57.888304,103.677354,0.000000,0.000000
node_68A,125.310018,-1.485043,125.312718,-1.482396,0.000000,0.000000
meter_203,125.310018,-1.485043,125.312718,-1.482396,0.000000,0.000000
meter_204,125.310018,-1.485043,125.312718,-1.482396,0.000000,0.000000
node_69A,125.222350,-1.595243,125.227747,-1.589958,0.000000,0.000000
meter_205,125.222350,-1.595243,125.227747,-1.589958,0.000000,0.000000
meter_206,125.222350,-1.595243,125.227747,-1.589958,0.000000,0.000000
meter_207,125.222350,-1.595243,125.227747,-1.589958,0.000000,0.000000
meter_208,125.222350,-1.595243,125.227747,-1.589958,0.000000,0.000000
node_70A,125.252084,-1.528771,125.254783,-1.526126,0.000000,0.000000
meter_209,125.252084,-1.528771,125.254783,-1.526126,0.000000,0.000000
meter_210,125.252084,-1.528771,125.254783,-1.526126,0.000000,0.000000
node_71A,125.184721,-1.623621,125.190116,-1.618337,0.000000,0.000000
...